[TITLE]
A single pipe with a tank at an elevation of ten metres pouring out into a reservoir.

[JUNCTIONS]
;ID              	Elev        	Demand      	Pattern
 2	0	0		;
 3	0	0		;

[RESERVOIRS]
;ID              	Head        	Pattern
 1	0		;
 4	20		;

[TANKS]
;ID              	Elevation   	InitLevel   	MinLevel    	MaxLevel    	Diameter    	MinVol      	VolCurve
;Automated content below - Do not edit!
2_3_tank	0	0	0	1	9.48593810465237	0		;

[PIPES]
;ID              	Node1           	Node2           	Length      	Diameter    	Roughness   	MinorLoss   	Status
 5	1	2	0.5	1000	100	0	Open	;
 6	3	4	0.5	1000	100	0	Open	;
 7	2	3	1000	300	100	0	Closed	;
 ; 1 km pipe is good with .3 in diameter
;Automated content below - Do not edit!
2->2_3_tank	2	2_3_tank	444.44441904779814	300.0	100	0	CV	;
3->2_3_tank	3	2_3_tank	444.44441904779814	300.0	100	0	CV	;

[PUMPS]
;ID              	Node1           	Node2           	Parameters

[VALVES]
;ID              	Node1           	Node2           	Diameter    	Type	Setting     	MinorLoss

[TAGS]

[DEMANDS]
;Junction        	Demand      	Pattern         	Category

[STATUS]
;ID              	Status/Setting

[PATTERNS]
;ID              	Multipliers
;Demand Pattern

[CURVES]
;ID              	X-Value     	Y-Value

[CONTROLS]

[RULES]
;Automated content below - Do not edit!
RULE	1
IF	TANK	2_3_tank	LEVEL	ABOVE	0.99
THEN	PIPE	 7	STATUS	IS	OPEN

 

[ENERGY]
 Global Efficiency  	75
 Global Price       	0.0
 Demand Charge      	0.0

[EMITTERS]
;Junction        	Coefficient

[QUALITY]
;Node            	InitQual

[SOURCES]
;Node            	Type        	Quality     	Pattern

[REACTIONS]
;Type     	Pipe/Tank       	Coefficient

[MIXING]
;Tank            	Model

[TIMES]
 Duration           	00:30
; Our smallest timestep is 30 seconds, and since rules are evaluated every 1/10 of the smallest timestep (p.118), it means
; rules are evaluated every 3 seconds, so uncertainties are +-1.5 seconds
 Hydraulic Timestep 	0:00:30
 Report Timestep    	0:01
 Report Start       	0:00
 Start ClockTime    	12 am
 Statistic          	None

[REPORT]
 Status             	Yes
 Summary            	Yes
 Page               	0

[OPTIONS]
 Units              	LPM
 Headloss           	H-W
 Specific Gravity   	1.0
 Viscosity          	1.0
 Trials             	40
 Accuracy           	0.001
 CHECKFREQ          	2
 MAXCHECK           	10
 DAMPLIMIT          	0
 Unbalanced         	Continue 10
 Pattern            	1
 Demand Multiplier  	1.0
 Emitter Exponent   	0.5
 Quality            	Chlorine mg/L
 Diffusivity        	1.0
 Tolerance          	0.01

[COORDINATES]
;Node            	X-Coord         	Y-Coord
 1	25.0	50.0	;
 2	30.0	50.0	;
 3	50.0	50.0	;
 4	55.0	60.0	;

[VERTICES]
;Link            	X-Coord         	Y-Coord

[LABELS]
;X-Coord           Y-Coord          Label & Anchor Node

[BACKDROP]
 DIMENSIONS     	0.00            	0.00            	100.00           	100.00
 UNITS          	None
 FILE
 OFFSET         	0.00            	0.00

[END]
