[TITLE]
A series of 10 pipes each rising 1m in elevation powered by a 20m reservoir.

[JUNCTIONS]
;ID              	Elev        	Demand      	Pattern
 2	0	0		;
 3	1	0		;
 4	2	0		;
 5	3	0		;
 6	4	0		;
 7	5	0		;
 8	6	0		;
 9	7	0		;
 10	8	0		;
 11	9	0		;

[RESERVOIRS]
;ID              	Head        	Pattern
 1	20		;
 12	10		;

[TANKS]
;ID              	Elevation   	InitLevel   	MinLevel    	MaxLevel    	Diameter    	MinVol      	VolCurve

[PIPES]
;ID              	Node1           	Node2           	Length      	Diameter    	Roughness   	MinorLoss   	Status
 13	1	2	0.5	1000	100	0	Open	;
 14	2	3	500	300	100	0	Open	;
 15	3	4	500	300	100	0	Open	;
 16	4	5	500	300	100	0	Open	;
 17	5	6	500	300	100	0	Open	;
 18	6	7	500	300	100	0	Open	;
 19	7	8	500	300	100	0	Open	;
 20	8	9	500	300	100	0	Open	;
 21	9	10	500	300	100	0	Open	;
 22	10	11	500	300	100	0	Open	;
 23	11	12	500	300	100	0	Open	;

[PUMPS]
;ID              	Node1           	Node2           	Parameters

[VALVES]
;ID              	Node1           	Node2           	Diameter    	Type	Setting     	MinorLoss

[TAGS]

[DEMANDS]
;Junction        	Demand      	Pattern         	Category

[STATUS]
;ID              	Status/Setting

[PATTERNS]
;ID              	Multipliers
;Demand Pattern

[CURVES]
;ID              	X-Value     	Y-Value

[CONTROLS]

[RULES]

[ENERGY]
 Global Efficiency  	75
 Global Price       	0.0
 Demand Charge      	0.0

[EMITTERS]
;Junction        	Coefficient

[QUALITY]
;Node            	InitQual

[SOURCES]
;Node            	Type        	Quality     	Pattern

[REACTIONS]
;Type     	Pipe/Tank       	Coefficient

[MIXING]
;Tank            	Model

[TIMES]
 Duration           	2:12:00
 Hydraulic Timestep 	0:00:30
 Report Timestep    	0:01
 Report Start       	0:00
 Start ClockTime    	12 am
 Statistic          	None

[REPORT]
 Status             	Yes
 Summary            	Yes
 Page               	0

[OPTIONS]
 Units              	LPM
 Headloss           	H-W
 Specific Gravity   	1.0
 Viscosity          	1.0
 Trials             	40
 Accuracy           	0.001
 CHECKFREQ          	2
 MAXCHECK           	10
 DAMPLIMIT          	0
 Unbalanced         	Continue 10
 Pattern            	1
 Demand Multiplier  	1.0
 Emitter Exponent   	0.5
 Quality            	Chlorine mg/L
 Diffusivity        	1.0
 Tolerance          	0.01

[COORDINATES]
;Node            	X-Coord         	Y-Coord
 1	10.0	50.0	;
 2	15.0	0.0	;
 3	20.0	2.5	;
 4	25.0	5.0	;
 5	30.0	7.5	;
 6	35.0	10.0	;
 7	40.0	12.5	;
 8	45.0	15.0	;
 9	50.0	17.5	;
 10	55.0	20.0	;
 11	60.0	22.5	;
 12	65.0	25.0	;

[VERTICES]
;Link            	X-Coord         	Y-Coord

[LABELS]
;X-Coord           Y-Coord          Label & Anchor Node

[BACKDROP]
 DIMENSIONS     	0.00            	0.00            	100.00           	100.00
 UNITS          	None
 FILE
 OFFSET         	0.00            	0.00

[END]