[TITLE]
A series of 10 pipes with parameters chosen from a config file

[JUNCTIONS]
;ID              	Elev        	Demand      	Pattern
 2	<e1>	0		;
 3	<e2>	0		;
 4	<e3>	0		;
 5	<e4>	0		;
 6	<e5>	0		;
 7	<e6>	0		;
 8	<e7>	0		;
 9	<e8>	0		;
 10	<e9>	0		;
 11	<e10>	0		;
 12	<e11>	0		;

[RESERVOIRS]
;ID              	Head        	Pattern
 1	<e0>		;
 13	<e12>		;

[TANKS]
;ID              	Elevation   	InitLevel   	MinLevel    	MaxLevel    	Diameter    	MinVol      	VolCurve

[PIPES]
;ID              	Node1           	Node2           	Length      	Diameter    	Roughness   	MinorLoss   	Status
 13	1	2	<l0>	<d0>	100	0	Open	;
 14	2	3	<l1>	<d1>	100	0	Open	;
 15	3	4	<l2>	<d2>	100	0	Open	;
 16	4	5	<l3>	<d3>	100	0	Open	;
 17	5	6	<l4>	<d4>	100	0	Open	;
 18	6	7	<l5>	<d5>	100	0	Open	;
 19	7	8	<l6>	<d6>	100	0	Open	;
 20	8	9	<l7>	<d7>	100	0	Open	;
 21	9	10	<l8>	<d8>	100	0	Open	;
 22	10	11	<l9>	<d9>	100	0	Open	;
 23	11	12	<l10>	<d10>	100	0	Open	;
 24	12	13	<l11>	<d11>	100	0	Open	;

[PUMPS]
;ID              	Node1           	Node2           	Parameters

[VALVES]
;ID              	Node1           	Node2           	Diameter    	Type	Setting     	MinorLoss

[TAGS]

[DEMANDS]
;Junction        	Demand      	Pattern         	Category

[STATUS]
;ID              	Status/Setting

[PATTERNS]
;ID              	Multipliers
;Demand Pattern

[CURVES]
;ID              	X-Value     	Y-Value

[CONTROLS]

[RULES]


[ENERGY]
 Global Efficiency  	75
 Global Price       	0.0
 Demand Charge      	0.0

[EMITTERS]
;Junction        	Coefficient

[QUALITY]
;Node            	InitQual

[SOURCES]
;Node            	Type        	Quality     	Pattern

[REACTIONS]
;Type     	Pipe/Tank       	Coefficient

[MIXING]
;Tank            	Model

[TIMES]
 Duration           	2:12:00
 Hydraulic Timestep 	0:00:30
 Report Timestep    	0:01
 Report Start       	0:00
 Start ClockTime    	12 am
 Statistic          	None

[REPORT]
 Status             	Yes
 Summary            	Yes
 Page               	0

[OPTIONS]
 Units              	LPM
 Headloss           	H-W
 Specific Gravity   	1.0
 Viscosity          	1.0
 Trials             	40
 Accuracy           	0.001
 CHECKFREQ          	2
 MAXCHECK           	10
 DAMPLIMIT          	0
 Unbalanced         	Continue 10
 Pattern            	1
 Demand Multiplier  	1.0
 Emitter Exponent   	0.5
 Quality            	Chlorine mg/L
 Diffusivity        	1.0
 Tolerance          	0.01

[COORDINATES]
;Node            	X-Coord         	Y-Coord
 1	10.0	50.0	;
 2	15.0	0.0	;
 3	20.0	2.5	;
 4	25.0	5.0	;
 5	30.0	7.5	;
 6	35.0	10.0	;
 7	40.0	12.5	;
 8	45.0	15.0	;
 9	50.0	17.5	;
 10	55.0	20.0	;
 11	60.0	22.5	;
 12	65.0	25.0	;

[VERTICES]
;Link            	X-Coord         	Y-Coord

[LABELS]
;X-Coord           Y-Coord          Label & Anchor Node

[BACKDROP]
 DIMENSIONS     	0.00            	0.00            	100.00           	100.00
 UNITS          	None
 FILE
 OFFSET         	0.00            	0.00

[END]
